Version 4
SHEET 1 1128 1140
WIRE -256 -464 -608 -464
WIRE -256 -432 -256 -464
WIRE -256 -416 -256 -432
WIRE -256 -272 -256 -336
WIRE -112 -272 -256 -272
WIRE 448 -272 -48 -272
WIRE 512 -272 448 -272
WIRE -256 -256 -256 -272
WIRE -256 -96 -256 -160
WIRE -112 -96 -256 -96
WIRE 352 -96 -48 -96
WIRE 512 -96 352 -96
WIRE 592 -96 592 -272
WIRE -256 64 -256 0
WIRE -112 64 -256 64
WIRE 256 64 -48 64
WIRE 512 64 256 64
WIRE 592 64 592 -96
WIRE -256 80 -256 64
WIRE -256 176 -256 160
WIRE -256 240 -256 176
WIRE -112 240 -256 240
WIRE 160 240 -48 240
WIRE 512 240 160 240
WIRE 592 240 592 64
WIRE -256 256 -256 240
WIRE -256 272 -256 256
WIRE -608 288 -608 -464
WIRE -256 416 -256 352
WIRE -112 416 -256 416
WIRE 64 416 -48 416
WIRE 512 416 64 416
WIRE 592 416 592 240
WIRE -256 432 -256 416
WIRE -256 592 -256 528
WIRE -112 592 -256 592
WIRE -32 592 -48 592
WIRE 512 592 -32 592
WIRE 592 592 592 416
WIRE -608 640 -608 368
WIRE -528 640 -608 640
WIRE -528 672 -528 640
WIRE 592 672 592 592
WIRE 656 672 592 672
WIRE -256 752 -256 688
WIRE 512 752 -256 752
WIRE 592 752 592 672
WIRE 656 784 656 672
WIRE 800 784 656 784
WIRE -256 800 -256 752
WIRE -32 800 -32 592
WIRE 64 800 64 416
WIRE 160 800 160 240
WIRE 256 800 256 64
WIRE 352 800 352 -96
WIRE 448 800 448 -272
WIRE 656 832 656 784
WIRE 800 832 800 784
WIRE -256 944 -256 896
WIRE -32 944 -32 896
WIRE 64 944 64 896
WIRE 160 944 160 896
WIRE 256 944 256 896
WIRE 352 944 352 896
WIRE 448 944 448 896
WIRE 656 944 656 896
WIRE 720 944 656 944
WIRE 800 944 800 912
WIRE 800 944 720 944
FLAG -256 944 0
FLAG 720 944 0
FLAG -32 944 0
FLAG 64 944 0
FLAG 160 944 0
FLAG 256 944 0
FLAG 352 944 0
FLAG 448 944 0
FLAG -528 672 0
SYMBOL ind 496 -256 R270
WINDOW 0 32 56 VTop 2
WINDOW 3 5 56 VBottom 2
SYMATTR InstName L1
SYMATTR Value {Lf}
SYMBOL nmos -304 -432 R0
WINDOW 123 56 100 Left 2
SYMATTR Value2 ron = {ron} Coss = {Coss}
SYMATTR InstName M1
SYMBOL cap -48 -288 R90
WINDOW 0 0 32 VBottom 2
WINDOW 3 32 32 VTop 2
SYMATTR InstName Cfly1
SYMATTR Value {Cfly}
SYMBOL cap -48 -112 R90
WINDOW 0 0 32 VBottom 2
WINDOW 3 32 32 VTop 2
SYMATTR InstName Cfly2
SYMATTR Value {Cfly}
SYMBOL ind 496 -80 R270
WINDOW 0 32 56 VTop 2
WINDOW 3 5 56 VBottom 2
SYMATTR InstName L2
SYMATTR Value {Lf}
SYMBOL ind 496 80 R270
WINDOW 0 32 56 VTop 2
WINDOW 3 5 56 VBottom 2
SYMATTR InstName L3
SYMATTR Value {Lf}
SYMBOL nmos -304 -256 R0
WINDOW 123 56 100 Left 2
SYMATTR Value2 ron = {ron} Coss = {Coss}
SYMATTR InstName M2
SYMBOL nmos -304 -96 R0
WINDOW 123 56 100 Left 2
SYMATTR Value2 ron = {ron} Coss = {Coss}
SYMATTR InstName M3
SYMBOL nmos -304 80 R0
WINDOW 123 56 100 Left 2
SYMATTR Value2 ron = {ron} Coss = {Coss}
SYMATTR InstName M4
SYMBOL cap -48 48 R90
WINDOW 0 0 32 VBottom 2
WINDOW 3 32 32 VTop 2
SYMATTR InstName Cfly3
SYMATTR Value {Cfly}
SYMBOL ind 496 256 R270
WINDOW 0 32 56 VTop 2
WINDOW 3 5 56 VBottom 2
SYMATTR InstName L4
SYMATTR Value {Lf}
SYMBOL cap -48 224 R90
WINDOW 0 0 32 VBottom 2
WINDOW 3 32 32 VTop 2
SYMATTR InstName Cfly4
SYMATTR Value {Cfly}
SYMBOL ind 496 432 R270
WINDOW 0 32 56 VTop 2
WINDOW 3 5 56 VBottom 2
SYMATTR InstName L5
SYMATTR Value {Lf}
SYMBOL nmos -304 256 R0
WINDOW 123 56 100 Left 2
SYMATTR Value2 ron = {ron} Coss = {Coss}
SYMATTR InstName M5
SYMBOL cap -48 400 R90
WINDOW 0 0 32 VBottom 2
WINDOW 3 32 32 VTop 2
SYMATTR InstName Cfly5
SYMATTR Value {Cfly}
SYMBOL cap -48 576 R90
WINDOW 0 0 32 VBottom 2
WINDOW 3 32 32 VTop 2
SYMATTR InstName Cfly6
SYMATTR Value {Cfly}
SYMBOL ind 496 608 R270
WINDOW 0 32 56 VTop 2
WINDOW 3 5 56 VBottom 2
SYMATTR InstName L6
SYMATTR Value {Lf}
SYMBOL ind 496 768 R270
WINDOW 0 32 56 VTop 2
WINDOW 3 5 56 VBottom 2
SYMATTR InstName L7
SYMATTR Value {Lf}
SYMBOL nmos -304 432 R0
WINDOW 123 56 100 Left 2
SYMATTR Value2 ron = {ron} Coss = {Coss}
SYMATTR InstName M6
SYMBOL nmos -304 592 R0
WINDOW 123 56 100 Left 2
SYMATTR Value2 ron = {ron} Coss = {Coss}
SYMATTR InstName M7
SYMBOL nmos -304 800 R0
WINDOW 123 56 100 Left 2
SYMATTR Value2 ron = {ron} Coss = {Coss}
SYMATTR InstName M8
SYMBOL cap 640 832 R0
SYMATTR InstName C1
SYMATTR Value {Cout}
SYMBOL res 784 816 R0
SYMATTR InstName R1
SYMATTR Value {Rout}
SYMBOL nmos -80 800 R0
WINDOW 123 56 100 Left 2
SYMATTR Value2 ron = {ron} Coss = {Coss}
SYMATTR InstName M9
SYMBOL nmos 16 800 R0
WINDOW 123 56 100 Left 2
SYMATTR Value2 ron = {ron} Coss = {Coss}
SYMATTR InstName M10
SYMBOL nmos 112 800 R0
WINDOW 123 56 100 Left 2
SYMATTR Value2 ron = {ron} Coss = {Coss}
SYMATTR InstName M11
SYMBOL nmos 208 800 R0
WINDOW 123 56 100 Left 2
SYMATTR Value2 ron = {ron} Coss = {Coss}
SYMATTR InstName M12
SYMBOL nmos 304 800 R0
WINDOW 123 56 100 Left 2
SYMATTR Value2 ron = {ron} Coss = {Coss}
SYMATTR InstName M13
SYMBOL nmos 400 800 R0
WINDOW 123 56 100 Left 2
SYMATTR Value2 ron = {ron} Coss = {Coss}
SYMATTR InstName M14
SYMBOL voltage -608 272 R0
SYMATTR InstName V1
SYMATTR Value 48
