Version 4
SHEET 1 2488 1924
WIRE -96 -400 -400 -400
WIRE -96 -368 -96 -400
WIRE -96 -352 -96 -368
WIRE -96 -208 -96 -272
WIRE 48 -208 -96 -208
WIRE 1072 -208 112 -208
WIRE 1088 -208 1072 -208
WIRE 1200 -208 1168 -208
WIRE -96 -192 -96 -208
WIRE -96 -32 -96 -96
WIRE 48 -32 -96 -32
WIRE 976 -32 112 -32
WIRE 1088 -32 976 -32
WIRE 1200 -32 1168 -32
WIRE 1280 -32 1280 -208
WIRE -400 112 -400 -400
WIRE -96 128 -96 64
WIRE 48 128 -96 128
WIRE 880 128 112 128
WIRE 1088 128 880 128
WIRE 1200 128 1168 128
WIRE 1280 128 1280 -32
WIRE -96 144 -96 128
WIRE -96 240 -96 224
WIRE -96 304 -96 240
WIRE 48 304 -96 304
WIRE 784 304 112 304
WIRE 1088 304 784 304
WIRE 1200 304 1168 304
WIRE 1280 304 1280 128
WIRE -96 320 -96 304
WIRE -96 336 -96 320
WIRE -400 352 -400 192
WIRE -96 480 -96 416
WIRE 48 480 -96 480
WIRE 688 480 112 480
WIRE 1104 480 688 480
WIRE 1200 480 1184 480
WIRE 1280 480 1280 304
WIRE -96 496 -96 480
WIRE -96 656 -96 592
WIRE 48 656 -96 656
WIRE 608 656 112 656
WIRE 1104 656 608 656
WIRE 1200 656 1184 656
WIRE 1280 656 1280 480
WIRE -96 672 -96 656
WIRE -96 688 -96 672
WIRE -400 704 -400 432
WIRE -320 704 -400 704
WIRE -320 736 -320 704
WIRE -96 832 -96 768
WIRE 48 832 -96 832
WIRE 512 832 112 832
WIRE 1104 832 512 832
WIRE 1200 832 1184 832
WIRE 1280 832 1280 656
WIRE -96 848 -96 832
WIRE -96 1008 -96 944
WIRE 48 1008 -96 1008
WIRE 416 1008 112 1008
WIRE 1104 1008 416 1008
WIRE 1200 1008 1184 1008
WIRE 1280 1008 1280 832
WIRE -96 1168 -96 1104
WIRE 48 1168 -96 1168
WIRE 320 1168 112 1168
WIRE 1088 1168 320 1168
WIRE 1200 1168 1168 1168
WIRE 1280 1168 1280 1008
WIRE -96 1184 -96 1168
WIRE -96 1280 -96 1264
WIRE -96 1344 -96 1280
WIRE 48 1344 -96 1344
WIRE 224 1344 112 1344
WIRE 1088 1344 224 1344
WIRE 1200 1344 1168 1344
WIRE 1280 1344 1280 1168
WIRE -96 1360 -96 1344
WIRE -96 1376 -96 1360
WIRE -96 1520 -96 1456
WIRE 48 1520 -96 1520
WIRE 128 1520 112 1520
WIRE 1088 1520 128 1520
WIRE 1200 1520 1168 1520
WIRE 1280 1520 1280 1344
WIRE -96 1536 -96 1520
WIRE 1280 1600 1280 1520
WIRE 1344 1600 1280 1600
WIRE -96 1696 -96 1632
WIRE 1088 1696 -96 1696
WIRE 1200 1696 1168 1696
WIRE 1280 1696 1280 1600
WIRE 1344 1712 1344 1600
WIRE 1488 1712 1344 1712
WIRE -96 1760 -96 1696
WIRE 128 1760 128 1520
WIRE 224 1760 224 1344
WIRE 320 1760 320 1168
WIRE 416 1760 416 1008
WIRE 512 1760 512 832
WIRE 608 1760 608 656
WIRE 688 1760 688 480
WIRE 784 1760 784 304
WIRE 880 1760 880 128
WIRE 976 1760 976 -32
WIRE 1072 1760 1072 -208
WIRE 1344 1760 1344 1712
WIRE 1488 1760 1488 1712
WIRE 1344 1872 1344 1824
WIRE 1408 1872 1344 1872
WIRE 1488 1872 1488 1840
WIRE 1488 1872 1408 1872
WIRE -96 1904 -96 1856
WIRE 128 1904 128 1856
WIRE 224 1904 224 1856
WIRE 320 1904 320 1856
WIRE 416 1904 416 1856
WIRE 512 1904 512 1856
WIRE 608 1904 608 1856
WIRE 688 1904 688 1856
WIRE 784 1904 784 1856
WIRE 880 1904 880 1856
WIRE 976 1904 976 1856
WIRE 1072 1904 1072 1856
FLAG -96 1904 0
FLAG 128 1904 0
FLAG 224 1904 0
FLAG 320 1904 0
FLAG 416 1904 0
FLAG 512 1904 0
FLAG 608 1904 0
FLAG 688 1904 0
FLAG 784 1904 0
FLAG 880 1904 0
FLAG 976 1904 0
FLAG 1072 1904 0
FLAG 1408 1872 0
FLAG -320 736 0
SYMBOL ind2 1296 -192 M270
WINDOW 0 32 56 VTop 2
WINDOW 3 5 56 VBottom 2
SYMATTR InstName L1
SYMATTR Value {Lf}
SYMATTR Type ind
SYMBOL nmos -144 -368 R0
WINDOW 123 56 100 Left 2
SYMATTR Value2 ron = {ron} Coss = {Coss}
SYMATTR InstName M1
SYMBOL cap 48 -224 M90
WINDOW 0 0 32 VBottom 2
WINDOW 3 32 32 VTop 2
SYMATTR InstName Cfly1
SYMATTR Value {Cfly}
SYMBOL cap 48 -48 M90
WINDOW 0 0 32 VBottom 2
WINDOW 3 32 32 VTop 2
SYMATTR InstName Cfly2
SYMATTR Value {Cfly}
SYMBOL ind 1296 -16 M270
WINDOW 0 32 56 VTop 2
WINDOW 3 5 56 VBottom 2
SYMATTR InstName L2
SYMATTR Value {Lf}
SYMBOL ind 1296 144 M270
WINDOW 0 32 56 VTop 2
WINDOW 3 5 56 VBottom 2
SYMATTR InstName L3
SYMATTR Value {Lf}
SYMBOL nmos -144 -192 R0
WINDOW 123 56 100 Left 2
SYMATTR Value2 ron = {ron} Coss = {Coss}
SYMATTR InstName M2
SYMBOL nmos -144 -32 R0
WINDOW 123 56 100 Left 2
SYMATTR Value2 ron = {ron} Coss = {Coss}
SYMATTR InstName M3
SYMBOL nmos -144 144 R0
WINDOW 123 56 100 Left 2
SYMATTR Value2 ron = {ron} Coss = {Coss}
SYMATTR InstName M4
SYMBOL cap 48 112 M90
WINDOW 0 0 32 VBottom 2
WINDOW 3 32 32 VTop 2
SYMATTR InstName Cfly3
SYMATTR Value {Cfly}
SYMBOL ind 1296 320 M270
WINDOW 0 32 56 VTop 2
WINDOW 3 5 56 VBottom 2
SYMATTR InstName L4
SYMATTR Value {Lf}
SYMBOL cap 48 288 M90
WINDOW 0 0 32 VBottom 2
WINDOW 3 32 32 VTop 2
SYMATTR InstName Cfly4
SYMATTR Value {Cfly}
SYMBOL ind 1296 496 M270
WINDOW 0 32 56 VTop 2
WINDOW 3 5 56 VBottom 2
SYMATTR InstName L5
SYMATTR Value {Lf}
SYMBOL nmos -144 320 R0
WINDOW 123 56 100 Left 2
SYMATTR Value2 ron = {ron} Coss = {Coss}
SYMATTR InstName M5
SYMBOL cap 48 464 M90
WINDOW 0 0 32 VBottom 2
WINDOW 3 32 32 VTop 2
SYMATTR InstName Cfly5
SYMATTR Value {Cfly}
SYMBOL cap 48 640 M90
WINDOW 0 0 32 VBottom 2
WINDOW 3 32 32 VTop 2
SYMATTR InstName Cfly6
SYMATTR Value {Cfly}
SYMBOL ind 1296 672 M270
WINDOW 0 32 56 VTop 2
WINDOW 3 5 56 VBottom 2
SYMATTR InstName L6
SYMATTR Value {Lf}
SYMBOL nmos -144 496 R0
WINDOW 123 56 100 Left 2
SYMATTR Value2 ron = {ron} Coss = {Coss}
SYMATTR InstName M6
SYMBOL ind 1296 848 M270
WINDOW 0 32 56 VTop 2
WINDOW 3 5 56 VBottom 2
SYMATTR InstName L7
SYMATTR Value {Lf}
SYMBOL nmos -144 672 R0
WINDOW 123 56 100 Left 2
SYMATTR Value2 ron = {ron} Coss = {Coss}
SYMATTR InstName M7
SYMBOL cap 48 816 M90
WINDOW 0 0 32 VBottom 2
WINDOW 3 32 32 VTop 2
SYMATTR InstName Cfly7
SYMATTR Value {Cfly}
SYMBOL cap 48 992 M90
WINDOW 0 0 32 VBottom 2
WINDOW 3 32 32 VTop 2
SYMATTR InstName Cfly8
SYMATTR Value {Cfly}
SYMBOL ind 1296 1024 M270
WINDOW 0 32 56 VTop 2
WINDOW 3 5 56 VBottom 2
SYMATTR InstName L8
SYMATTR Value {Lf}
SYMBOL ind 1296 1184 M270
WINDOW 0 32 56 VTop 2
WINDOW 3 5 56 VBottom 2
SYMATTR InstName L9
SYMATTR Value {Lf}
SYMBOL nmos -144 848 R0
WINDOW 123 56 100 Left 2
SYMATTR Value2 ron = {ron} Coss = {Coss}
SYMATTR InstName M8
SYMBOL nmos -144 1008 R0
WINDOW 123 56 100 Left 2
SYMATTR Value2 ron = {ron} Coss = {Coss}
SYMATTR InstName M9
SYMBOL nmos -144 1184 R0
WINDOW 123 56 100 Left 2
SYMATTR Value2 ron = {ron} Coss = {Coss}
SYMATTR InstName M10
SYMBOL cap 48 1152 M90
WINDOW 0 0 32 VBottom 2
WINDOW 3 32 32 VTop 2
SYMATTR InstName Cfly9
SYMATTR Value {Cfly}
SYMBOL ind 1296 1360 M270
WINDOW 0 32 56 VTop 2
WINDOW 3 5 56 VBottom 2
SYMATTR InstName L10
SYMATTR Value {Lf}
SYMBOL cap 48 1328 M90
WINDOW 0 0 32 VBottom 2
WINDOW 3 32 32 VTop 2
SYMATTR InstName Cfly10
SYMATTR Value {Cfly}
SYMBOL ind 1296 1536 M270
WINDOW 0 32 56 VTop 2
WINDOW 3 5 56 VBottom 2
SYMATTR InstName L11
SYMATTR Value {Lf}
SYMBOL nmos -144 1360 R0
WINDOW 123 56 100 Left 2
SYMATTR Value2 ron = {ron} Coss = {Coss}
SYMATTR InstName M11
SYMBOL cap 48 1504 M90
WINDOW 0 0 32 VBottom 2
WINDOW 3 32 32 VTop 2
SYMATTR InstName Cfly11
SYMATTR Value {Cfly}
SYMBOL ind 1296 1712 M270
WINDOW 0 32 56 VTop 2
WINDOW 3 5 56 VBottom 2
SYMATTR InstName L12
SYMATTR Value {Lf}
SYMBOL nmos -144 1536 R0
WINDOW 123 56 100 Left 2
SYMATTR Value2 ron = {ron} Coss = {Coss}
SYMATTR InstName M12
SYMBOL nmos -144 1760 R0
WINDOW 123 56 100 Left 2
SYMATTR Value2 ron = {ron} Coss = {Coss}
SYMATTR InstName M13
SYMBOL nmos 80 1760 R0
WINDOW 123 56 100 Left 2
SYMATTR Value2 ron = {ron} Coss = {Coss}
SYMATTR InstName M14
SYMBOL nmos 176 1760 R0
WINDOW 123 56 100 Left 2
SYMATTR Value2 ron = {ron} Coss = {Coss}
SYMATTR InstName M15
SYMBOL nmos 272 1760 R0
WINDOW 123 56 100 Left 2
SYMATTR Value2 ron = {ron} Coss = {Coss}
SYMATTR InstName M16
SYMBOL nmos 368 1760 R0
WINDOW 123 56 100 Left 2
SYMATTR Value2 ron = {ron} Coss = {Coss}
SYMATTR InstName M17
SYMBOL nmos 464 1760 R0
WINDOW 123 56 100 Left 2
SYMATTR Value2 ron = {ron} Coss = {Coss}
SYMATTR InstName M18
SYMBOL nmos 560 1760 R0
WINDOW 123 56 100 Left 2
SYMATTR Value2 ron = {ron} Coss = {Coss}
SYMATTR InstName M19
SYMBOL nmos 640 1760 R0
WINDOW 123 56 100 Left 2
SYMATTR Value2 ron = {ron} Coss = {Coss}
SYMATTR InstName M20
SYMBOL nmos 736 1760 R0
WINDOW 123 56 100 Left 2
SYMATTR Value2 ron = {ron} Coss = {Coss}
SYMATTR InstName M21
SYMBOL nmos 832 1760 R0
WINDOW 123 56 100 Left 2
SYMATTR Value2 ron = {ron} Coss = {Coss}
SYMATTR InstName M22
SYMBOL nmos 928 1760 R0
WINDOW 123 56 100 Left 2
SYMATTR Value2 ron = {ron} Coss = {Coss}
SYMATTR InstName M23
SYMBOL nmos 1024 1760 R0
WINDOW 123 56 100 Left 2
SYMATTR Value2 ron = {ron} Coss = {Coss}
SYMATTR InstName M24
SYMBOL cap 1328 1760 R0
SYMATTR InstName C1
SYMATTR Value {Cout}
SYMBOL res 1472 1744 R0
SYMATTR InstName R1
SYMATTR Value {Rout}
SYMBOL voltage -400 336 R0
SYMATTR InstName V1
SYMATTR Value 48
SYMBOL res 1184 -224 R90
WINDOW 0 0 56 VBottom 2
WINDOW 3 32 56 VTop 2
SYMATTR InstName R2
SYMATTR Value {RLs}
SYMBOL res 1184 -48 R90
WINDOW 0 0 56 VBottom 2
WINDOW 3 32 56 VTop 2
SYMATTR InstName R3
SYMATTR Value {RLs}
SYMBOL res 1184 112 R90
WINDOW 0 0 56 VBottom 2
WINDOW 3 32 56 VTop 2
SYMATTR InstName R4
SYMATTR Value {RLs}
SYMBOL res 1184 288 R90
WINDOW 0 0 56 VBottom 2
WINDOW 3 32 56 VTop 2
SYMATTR InstName R5
SYMATTR Value {RLs}
SYMBOL res 1200 464 R90
WINDOW 0 0 56 VBottom 2
WINDOW 3 32 56 VTop 2
SYMATTR InstName R6
SYMATTR Value {RLs}
SYMBOL res 1200 640 R90
WINDOW 0 0 56 VBottom 2
WINDOW 3 32 56 VTop 2
SYMATTR InstName R7
SYMATTR Value {RLs}
SYMBOL res 1200 816 R90
WINDOW 0 0 56 VBottom 2
WINDOW 3 32 56 VTop 2
SYMATTR InstName R8
SYMATTR Value {RLs}
SYMBOL res 1200 992 R90
WINDOW 0 0 56 VBottom 2
WINDOW 3 32 56 VTop 2
SYMATTR InstName R9
SYMATTR Value {RLs}
SYMBOL res 1184 1152 R90
WINDOW 0 0 56 VBottom 2
WINDOW 3 32 56 VTop 2
SYMATTR InstName R10
SYMATTR Value {RLs}
SYMBOL res 1184 1328 R90
WINDOW 0 0 56 VBottom 2
WINDOW 3 32 56 VTop 2
SYMATTR InstName R11
SYMATTR Value {RLs}
SYMBOL res 1184 1504 R90
WINDOW 0 0 56 VBottom 2
WINDOW 3 32 56 VTop 2
SYMATTR InstName R12
SYMATTR Value {RLs}
SYMBOL res 1184 1680 R90
WINDOW 0 0 56 VBottom 2
WINDOW 3 32 56 VTop 2
SYMATTR InstName R13
SYMATTR Value {RLs}
SYMBOL res -416 96 R0
SYMATTR InstName R14
SYMATTR Value 5m
