Version 4
SHEET 1 1524 712
WIRE -32 16 -224 16
WIRE -32 48 -32 16
WIRE -32 64 -32 48
WIRE -224 160 -224 16
WIRE -32 208 -32 144
WIRE 112 208 -32 208
WIRE 608 208 176 208
WIRE 736 208 608 208
WIRE 928 208 816 208
WIRE -32 224 -32 208
WIRE -224 304 -224 240
WIRE -32 384 -32 320
WIRE 112 384 -32 384
WIRE 304 384 176 384
WIRE 736 384 304 384
WIRE 928 384 928 208
WIRE 928 384 816 384
WIRE -32 496 -32 480
WIRE 736 496 -32 496
WIRE 928 496 928 384
WIRE 928 496 816 496
WIRE 1072 496 928 496
WIRE -32 544 -32 496
WIRE 304 544 304 384
WIRE 608 544 608 208
WIRE 928 544 928 496
WIRE 1072 544 1072 496
WIRE -224 656 -224 384
WIRE -144 656 -224 656
WIRE -32 656 -32 640
WIRE -32 656 -144 656
WIRE 304 656 304 640
WIRE 304 656 -32 656
WIRE 608 656 608 640
WIRE 608 656 304 656
WIRE 928 656 928 608
WIRE 928 656 608 656
WIRE 1072 656 1072 624
WIRE 1072 656 928 656
WIRE -144 688 -144 656
FLAG -144 688 0
SYMBOL nmos -80 224 R0
WINDOW 123 56 100 Left 2
SYMATTR Value2 ron = {ron} Coss = {Coss}
SYMATTR InstName M2
SYMBOL voltage -224 288 R0
WINDOW 123 0 0 Left 0
WINDOW 39 0 0 Left 0
SYMATTR InstName V1
SYMATTR Value {Vg}
SYMBOL ind 720 224 R270
WINDOW 0 32 56 VTop 2
WINDOW 3 5 56 VBottom 2
SYMATTR InstName L1
SYMATTR Value {Lf}
SYMBOL cap 912 544 R0
SYMATTR InstName C1
SYMATTR Value {Cout}
SYMBOL res 1056 528 R0
SYMATTR InstName R1
SYMATTR Value {Rout}
SYMBOL nmos -80 48 R0
WINDOW 123 56 100 Left 2
SYMATTR Value2 ron = {ron} Coss = {Coss}
SYMATTR InstName M1
SYMBOL nmos -80 384 R0
WINDOW 123 56 100 Left 2
SYMATTR Value2 ron = {ron} Coss = {Coss}
SYMATTR InstName M3
SYMBOL nmos -80 544 R0
WINDOW 123 56 100 Left 2
SYMATTR Value2 ron = {ron} Coss = {Coss}
SYMATTR InstName M4
SYMBOL nmos 256 544 R0
WINDOW 123 56 100 Left 2
SYMATTR Value2 ron = {ron} Coss = {Coss}
SYMATTR InstName M5
SYMBOL nmos 560 544 R0
WINDOW 123 56 100 Left 2
SYMATTR Value2 ron = {ron} Coss = {Coss}
SYMATTR InstName M6
SYMBOL cap 176 192 R90
WINDOW 0 0 32 VBottom 2
WINDOW 3 32 32 VTop 2
SYMATTR InstName Cfly1
SYMATTR Value {Cfly}
SYMBOL cap 176 368 R90
WINDOW 0 0 32 VBottom 2
WINDOW 3 32 32 VTop 2
SYMATTR InstName Cfly2
SYMATTR Value {Cfly}
SYMBOL ind 720 400 R270
WINDOW 0 32 56 VTop 2
WINDOW 3 5 56 VBottom 2
SYMATTR InstName L2
SYMATTR Value {Lf}
SYMBOL ind 720 512 R270
WINDOW 0 32 56 VTop 2
WINDOW 3 5 56 VBottom 2
SYMATTR InstName L3
SYMATTR Value {Lf}
SYMBOL res -240 144 R0
SYMATTR InstName R2
SYMATTR Value 10m
