Version 4
SHEET 1 1712 680
WIRE 528 -96 512 -96
WIRE 608 -96 592 -96
WIRE 32 -16 -96 -16
WIRE 160 -16 32 -16
WIRE 224 -16 160 -16
WIRE 272 -16 224 -16
WIRE 368 -16 352 -16
WIRE 480 -16 432 -16
WIRE 512 -16 512 -96
WIRE 512 -16 480 -16
WIRE 528 -16 512 -16
WIRE 608 -16 608 -96
WIRE 608 -16 592 -16
WIRE 656 -16 608 -16
WIRE 704 -16 656 -16
WIRE 736 -16 704 -16
WIRE -96 0 -96 -16
WIRE 160 0 160 -16
WIRE 224 0 224 -16
WIRE 368 16 368 -16
WIRE 368 16 352 16
WIRE 352 32 352 16
WIRE 352 32 320 32
WIRE 464 32 448 32
WIRE 736 48 736 -16
WIRE 320 64 320 32
WIRE 656 64 656 -16
WIRE 160 96 160 64
WIRE 160 96 96 96
WIRE 192 96 160 96
WIRE 224 96 224 80
WIRE 224 96 192 96
WIRE -96 112 -96 80
WIRE 192 112 192 96
WIRE 320 160 320 144
WIRE 352 160 320 160
WIRE 480 160 480 -16
WIRE 480 160 448 160
WIRE 192 192 192 176
WIRE 224 192 224 160
WIRE 224 192 192 192
WIRE 288 192 224 192
WIRE 336 192 288 192
WIRE 352 192 352 160
WIRE 352 192 336 192
WIRE 384 192 352 192
WIRE 464 192 464 32
WIRE 464 192 432 192
WIRE 576 192 544 192
WIRE 656 192 656 128
WIRE 656 192 576 192
WIRE 736 192 736 128
WIRE 736 192 656 192
WIRE 192 224 192 192
WIRE 128 256 32 256
WIRE 336 256 336 192
WIRE 384 256 384 192
WIRE 32 272 32 256
WIRE 128 304 128 256
WIRE 144 304 128 304
WIRE -96 352 -96 192
WIRE -16 352 -96 352
WIRE 32 352 -16 352
WIRE 192 352 192 320
WIRE 192 352 32 352
WIRE 336 352 336 320
WIRE 336 352 192 352
WIRE 384 352 384 320
WIRE 384 352 336 352
FLAG 576 192 0
FLAG -16 352 0
FLAG 32 -16 g
FLAG 704 -16 o
FLAG 96 96 c
FLAG 288 192 d
FLAG 480 -16 sd
SYMBOL nmos 144 224 R0
SYMATTR InstName M1
SYMATTR Value myMOS
SYMBOL schottky 208 176 R180
WINDOW 0 24 64 Left 2
WINDOW 3 24 0 Left 2
SYMATTR InstName D1
SYMATTR Value myD
SYMATTR Description Diode
SYMATTR Type diode
SYMBOL schottky 528 0 R270
WINDOW 0 32 32 VTop 2
WINDOW 3 0 32 VBottom 2
SYMATTR InstName D2
SYMATTR Value myD
SYMATTR Description Diode
SYMATTR Type diode
SYMBOL cap 144 0 R0
SYMATTR InstName C1
SYMATTR Value 5e-6
SYMBOL res 208 -16 R0
SYMATTR InstName R1
SYMATTR Value 100k
SYMBOL cap 640 64 R0
SYMATTR InstName C2
SYMATTR Value 10µ
SYMBOL current 736 48 R0
WINDOW 123 0 0 Left 0
WINDOW 39 0 0 Left 0
SYMATTR InstName I1
SYMATTR Value .1
SYMBOL voltage -96 96 R0
WINDOW 123 0 0 Left 0
WINDOW 39 0 0 Left 0
SYMATTR InstName V1
SYMATTR Value 48
SYMBOL voltage 32 256 R0
WINDOW 123 0 0 Left 0
WINDOW 39 0 0 Left 0
WINDOW 3 10 155 Left 2
SYMATTR InstName V2
SYMATTR Value PULSE(0 12 1p 1p 1p 331n 1u)
SYMBOL schottky 352 320 R180
WINDOW 0 24 64 Left 2
WINDOW 3 24 0 Left 2
SYMATTR InstName D3
SYMATTR Value myD
SYMATTR Description Diode
SYMATTR Type diode
SYMBOL cap 368 256 R0
SYMATTR InstName C3
SYMATTR Value 1n
SYMBOL Custom\\IdealTrans 400 64 R0
SYMATTR Value n=1/10
SYMATTR InstName U1
SYMBOL ind 256 0 R270
WINDOW 0 32 56 VTop 2
WINDOW 3 5 56 VBottom 2
SYMATTR InstName L1
SYMATTR Value 5µ
SYMATTR SpiceLine Rser=100m
SYMBOL ind 304 48 R0
SYMATTR InstName L2
SYMATTR Value 10µ
SYMBOL cap 208 96 R0
SYMATTR InstName C4
SYMATTR Value 1n
SYMBOL res 560 176 R90
WINDOW 0 0 56 VBottom 2
WINDOW 3 32 56 VTop 2
SYMATTR InstName R2
SYMATTR Value 10m
SYMBOL res -80 96 R180
WINDOW 0 36 76 Left 2
WINDOW 3 36 40 Left 2
SYMATTR InstName R3
SYMATTR Value 10m
SYMBOL cap 592 -112 R90
WINDOW 0 0 32 VBottom 2
WINDOW 3 32 32 VTop 2
SYMATTR InstName C5
SYMATTR Value 1n
TEXT -128 376 Left 2 !.tran 0 1m .999m
TEXT -64 -160 Left 2 !.model myD D(n=1)
TEXT -64 -136 Left 2 !.model myMOS VDMOS(Cj0 = 1p Rg = 0)
TEXT -152 496 Left 2 !.ic V(o)=0.7245 V(d)=64.1995 V(c,g)=24.1066 I(L1)=-0.1737 I(L2)=-0.0532 V(o,sd) =     7.9080
TEXT 536 -144 Left 2 !.lib myParts.lib
