Version 4
SHEET 1 1352 680
WIRE 176 -672 112 -672
WIRE 192 -672 176 -672
WIRE 112 -640 112 -672
WIRE 64 -624 -176 -624
WIRE 64 -576 -32 -576
WIRE -176 -208 -176 -624
WIRE -144 -208 -176 -208
WIRE -32 -208 -32 -576
WIRE -32 -208 -80 -208
WIRE 16 -208 -32 -208
WIRE -176 -112 -176 -208
WIRE -176 -112 -208 -112
WIRE -160 -112 -176 -112
WIRE -48 -112 -64 -112
WIRE -32 -112 -48 -112
WIRE 16 -112 16 -208
WIRE 16 -112 -32 -112
WIRE 48 -112 16 -112
WIRE 176 -112 128 -112
WIRE 224 -112 176 -112
WIRE 256 -112 224 -112
WIRE 304 -112 256 -112
WIRE 448 -112 384 -112
WIRE 480 -112 448 -112
WIRE 560 -112 480 -112
WIRE -208 -64 -208 -112
WIRE -64 -64 -80 -64
WIRE 560 -48 560 -112
WIRE 448 -16 448 -112
WIRE 224 32 224 -112
WIRE 176 48 176 -112
WIRE -208 112 -208 16
WIRE 176 112 -208 112
WIRE 224 112 224 96
WIRE 224 112 176 112
WIRE 368 112 224 112
WIRE 448 112 448 48
WIRE 448 112 368 112
WIRE 560 112 560 32
WIRE 560 112 448 112
WIRE -64 176 -64 -64
WIRE -64 176 -80 176
WIRE -48 208 -48 -112
WIRE -48 208 -80 208
WIRE -224 224 -240 224
WIRE -16 240 -80 240
WIRE 0 272 -80 272
WIRE -240 368 -240 224
WIRE 400 368 -240 368
WIRE 528 368 480 368
FLAG -208 -112 g
FLAG -32 -112 sw1
FLAG 528 368 0
FLAG 368 112 0
FLAG 0 272 0
FLAG 256 -112 d
FLAG 112 -560 0
FLAG 176 -672 Cr
FLAG 480 -112 out
SYMBOL voltage -208 -80 R0
SYMATTR InstName V1
SYMATTR Value 48
SYMBOL voltage 384 368 M90
WINDOW 3 24 96 Invisible 2
WINDOW 123 0 0 Left 2
WINDOW 39 0 0 Left 2
SYMATTR Value .45
SYMATTR InstName V3
SYMBOL nmos -160 -64 R270
SYMATTR InstName M4
SYMATTR Value HVmos
SYMBOL GateDriver_dt_phase -128 224 R0
SYMATTR InstName X2
SYMATTR SpiceLine Vdd=10 Tau={1n} Tau2={1n} Ts={Ts} phi={0}
SYMBOL diode 192 112 R180
WINDOW 0 24 64 Left 2
WINDOW 3 24 0 Left 2
SYMATTR InstName D1
SYMBOL ind 32 -96 R270
WINDOW 0 32 56 VTop 2
WINDOW 3 5 56 VBottom 2
SYMATTR InstName Lr
SYMATTR Value 1µ
SYMBOL cap -80 -224 R90
WINDOW 0 0 32 VBottom 2
WINDOW 3 32 32 VTop 2
SYMATTR InstName Cr
SYMATTR Value 10n
SYMBOL cap 208 32 R0
SYMATTR InstName C2
SYMATTR Value {Cd}
SYMBOL e 112 -656 R0
SYMATTR InstName E1
SYMATTR Value 1
SYMBOL ind 288 -96 R270
WINDOW 0 32 56 VTop 2
WINDOW 3 5 56 VBottom 2
SYMATTR InstName L1
SYMATTR Value 10µ
SYMBOL cap 432 -16 R0
SYMATTR InstName C1
SYMATTR Value 10µ
SYMBOL res 544 -64 R0
SYMATTR InstName R1
SYMATTR Value 2.4
TEXT -456 -304 Left 2 !.model HVmos VDMOS(Rg=1 Vto=4.5 Rd=14m Rs=10m Rb=17m Kp=30 Cgdmax=.5p Cgdmin=.05p Cgs=.2n Cjo=.03n Is=88p Vds=800 Ron=35m Qg=4n)
TEXT -448 -272 Left 2 !.model myD D(n=.1)
TEXT -456 432 Left 2 !.tran 0 500u 495u
TEXT 824 152 Left 2 !.param Ts = 1u
TEXT 272 -480 Left 2 !.lib myParts.lib
TEXT 640 -136 Left 2 !;.step param Cd list .1n 1n 10n
TEXT 632 -80 Left 2 !.param Cd=4n
TEXT 496 -200 Left 2 !.ic V(out)={V} I(L1)={V/2.4}
TEXT 616 -240 Left 2 !.param V=16
